*INCLUDE, INPUT=nodes.msh
*INCLUDE, INPUT=axi.msh
*INCLUDE, INPUT=ps.msh
*INCLUDE, INPUT=fix.nam 


*BOUNDARY
Nfix,2,2

*ELSET,ELSET=Eall
Eaxi,Eps

*MATERIAL,NAME=In718
*ELASTIC
1.7E5,.3
*DENSITY
8.22E-9

*SOLID SECTION,ELSET=Eaxi,MATERIAL=In718
*SOLID SECTION,ELSET=Eps,MATERIAL=In718
950

*STEP
*STATIC
*DLOAD
Eall,CENTRIF,2467401.09463,0.,0.,0.,0.,1.,0.
*NODE PRINT,NSET=Nall
U
*EL PRINT,ELSET=Eall
S
*EL FILE
U,S
*END STEP
