*INCLUDE, INPUT=all.msh 
*INCLUDE, INPUT=fix.nam 
*INCLUDE, INPUT=fn.nam 
*INCLUDE, INPUT=dres.nam
*INCLUDE, INPUT=sresmc.nam
*INCLUDE, INPUT=srespc.nam

*MATERIAL,NAME=EL
*ELASTIC
2.17E5,0.3
*DENSITY
7.85e-9

*SOLID SECTION, Material=EL, Elset=Eall

*AMPLITUDE,NAME=A1
0, 30,
0.000451178595332783, 33.8268343236509,
0.000902357190665565, 37.0710678118655,
0.00135353578599835, 39.2387953251129,
0.00180471438133113, 40,
0.00225589297666391, 39.2387953251129,
0.0027070715719967, 37.0710678118655,
0.00315825016732948, 33.8268343236509,
0.00360942876266226, 30,
0.00406060735799504, 26.1731656763491,
0.00451178595332783, 22.9289321881345,
0.00496296454866061, 20.7612046748871,
0.00541414314399339, 20,
0.00586532173932618, 20.7612046748871,
0.00631650033465896, 22.9289321881345,
0.00676767892999174, 26.1731656763491,
0.00721885752532453, 30,


*BOUNDARY
Nfix,1,6

*STEP
*FREQUENCY,SOLVER=ARPACK,STORAGE=YES
10,0.01
*END STEP

*STEP
*STEADY STATE DYNAMICS,HARMONIC=NO
128.53,148.53,2,1,20,0.,0.00721885752532453
*MODAL DAMPING
1,10,0.01
**MODAL DAMPING, RAYLEIGH
**,,0.,0.00001858736
**CLOAD
**Nfn,1,10.
*CLOAD, AMPLITUDE=A1
Nfn,1,1.
*NODE FILE
U
*EL FILE
S
*NODE PRINT,NSET=Ndres
U
*END STEP




