*INCLUDE, INPUT=all.msh
*INCLUDE, INPUT=x_symm.nam 
*INCLUDE, INPUT=c_symm.nam 
*INCLUDE, INPUT=nri.nam 
*INCLUDE, INPUT=nre.nam 

*TRANSFORM,NSET=Nc_symm,TYPE=C
0.,0.,0.,0.,0.,1.

*BOUNDARY
Nx_symm,1,1
Nc_symm,2,2
 

*MATERIAL,NAME=EL
*ELASTIC
2.1E5,.3
*DENSITY
7.8E-9


*SOLID SECTION,ELSET=Eall,MATERIAL=EL
4

**
*STEP
*STATIC
*DLOAD
Eall,CENTRIF,2149156,0.,0.,0.,0.,0,1.
*NODE PRINT,NSET=Nnri
U
*NODE PRINT,NSET=Nnre
U
*EL FILE
U,S
*END STEP
