*INCLUDE, INPUT=all.msh
*INCLUDE, INPUT=fix.nam 

*BOUNDARY
Nfix,2,2

*MATERIAL,NAME=EL
*ELASTIC
2.1E5,.3
*DENSITY
7.8E-9


*SOLID SECTION,ELSET=Eall,MATERIAL=EL

**
*STEP
*STATIC
*DLOAD
Eall,CENTRIF,2149156,0.,0.,0.,0.,1.,0.
*NODE PRINT,NSET=Nall
U
*EL PRINT,ELSET=Eall
S
*EL FILE
U,S
*END STEP
