*INCLUDE, INPUT=nodes3d.msh
*INCLUDE, INPUT=c3d.msh
*INCLUDE, INPUT=xfix3d.nam 
*INCLUDE, INPUT=yfix3d.nam 
*INCLUDE, INPUT=press3d.sur 

*BOUNDARY
Nxfix3d,1,1
Nyfix3d,2,2

*ELSET,ELSET=Eall
Ec3d

*MATERIAL,NAME=Steel
*ELASTIC
2.1E5,.3

*SOLID SECTION,ELSET=Ec3d,MATERIAL=Steel

*STEP, NLGEOM
*STATIC
*DSLOAD
Spress3d, P, -100
*NODE PRINT,NSET=Nall
U
*EL PRINT,ELSET=Eall
S
*EL FILE
U,S
*END STEP
