*INCLUDE, INPUT=all.msh 
*INCLUDE, INPUT=fix.nam 
*INCLUDE, INPUT=fn.nam 
*INCLUDE, INPUT=dres.nam
*INCLUDE, INPUT=sresmc.nam
*INCLUDE, INPUT=srespc.nam

*MATERIAL,NAME=EL
*ELASTIC
2.17E5,0.3
*DENSITY
7.85e-9

*SOLID SECTION, Material=EL, Elset=Eall

*AMPLITUDE,NAME=A1
0, 30,
0.000341976433674555, 30,
0.00068395286734911, 30,
0.00102592930102367, 30,
0.00136790573469822, 30,
0.00170988216837278, 30,
0.00205185860204733, 30,
0.00239383503572189, 30,
0.00273581146939644, 30,
0.00284501355009571, 27.5,
0.00295421563079498, 25,
0.00306341771149425, 22.5,
0.00317261979219352, 20,
0.00328182187289279, 17.5,
0.00339102395359206, 15,
0.00350022603429133, 12.5,
0.0036094281149906, 10,
0.00371863019568987, 12.5,
0.00382783227638914, 15,
0.00393703435708841, 17.5,
** ... 13 like lines cut

*BOUNDARY
Nfix,1,6

*STEP
*FREQUENCY,SOLVER=ARPACK,STORAGE=YES
10,0.01
*END STEP

*STEP
*STEADY STATE DYNAMICS,HARMONIC=NO
128.53,148.53,2,1,53,0.,0.00721885622998121
*MODAL DAMPING
1,10,0.01
**MODAL DAMPING, RAYLEIGH
**,,0.,0.00001858736
**CLOAD
**Nfn,1,10.
*CLOAD, AMPLITUDE=A1
Nfn,1,1.
*NODE FILE
U
*EL FILE
S
*NODE PRINT,NSET=Ndres
U
*END STEP




